%chk=butadiene.chk
# opt freq hf/3-21g 

Opt and Freq Calculations

0 1
 C                 -0.00002133    0.40155733    0.61389592
 H                  0.00003887    1.46907121    0.48183078
 C                 -0.00000629   -0.40155546   -0.61389276
 H                  0.00003428   -1.46906927   -0.48182287
 C                 -0.00000722    0.11126060   -1.83066805
 H                  0.00003626    1.17261565   -1.99776229
 C                 -0.00000602   -0.11126164    1.83066551
 H                  0.00006992    0.50927905    2.70533736
 H                  0.00002157   -1.17261770    1.99775079
 H                  0.00004427   -0.50928389   -2.70533755

